22   
Iteration 26 Energy -789.06136360
Cl       2.4766801281   -0.8819833044    0.2241631473
O        1.3606287973    1.4120290672   -1.3017172686
N       -1.1700632169   -0.2722397908   -0.1044325732
C       -0.6002614790   -0.7626743048    1.2067954404
C       -0.5556608698   -1.0416803098   -1.2567700010
C       -2.6511453262   -0.5401058839   -0.0996502750
C       -0.9860890812    1.2644245484   -0.2381571875
C        0.0590960700    1.8767087842   -1.1970644393
H       -0.7822132091   -1.8377891632    1.2658613574
H       -1.1209720993   -0.2419422070    2.0134951314
H        0.4865408170   -0.5887541098    1.2029649130
H       -0.9599365004   -2.0555725770   -1.2240306702
H       -0.8390823015   -0.5487374262   -2.1873679404
H        0.5310962525   -1.0710692727   -1.1179012657
H       -3.1159441869    0.0468333584    0.6950907433
H       -2.8138045201   -1.6037026319    0.0818825643
H       -3.0663089097   -0.2589127067   -1.0697023592
H       -1.9543427193    1.6672413124   -0.5438067185
H       -0.7890402553    1.5874628319    0.7870240137
H        0.0437637167    2.9392517177   -0.8835900528
H       -0.3929921606    1.8646815266   -2.2079356551
H        1.6426186262    0.6343697006   -0.7233492680
